-------------------------------------------------------
          Amber 16 PMEMD                              2016
          -------------------------------------------------------

  [-O]verwriting output

File Assignments:

 Here is the input file:

&cntrl
imin = 0, irest = 1,ntx = 5, nstlim = 1000000, dt = 0.002,
ntc = 2, ntf = 2,
cut = 10.0, ntb = 2, ntp = 1, taup=2.0,
ntpr = 500, ntwx = 500,
ntt = 3, gamma_ln = 2.0,
temp0 = 300.0,
ioutfm = 1,
/

Note: ig = -1. Setting random seed to   366442 based on wallclock time in
      microseconds and disabling the synchronization of random numbers
      between tasks to improve performance.

--------------------------------------------------------------------------------
   1.  RESOURCE   USE:
--------------------------------------------------------------------------------

 getting box info from netcdf restart file
 NATOM  =   30513 NTYPES =      26 NBONH =   29492 MBONA  =    1051
 NTHETH =    2326 MTHETA =    1426 NPHIH =    4634 MPHIA  =    4385
 NHPARM =       0 NPARM  =       0 NNB   =   49308 NRES   =    9610
 NBONA  =    1051 NTHETA =    1426 NPHIA =    4385 NUMBND =      80
 NUMANG =     178 NPTRA  =     203 NATYP =      44 NPHB   =       1
 IFBOX  =       1 NMXRS  =      68 IFCAP =       0 NEXTRA =       0
 NCOPY  =       0

     BOX TYPE: RECTILINEAR

--------------------------------------------------------------------------------
   2.  CONTROL  DATA  FOR  THE  RUN
--------------------------------------------------------------------------------

default_name

General flags:
     imin    =       0, nmropt  =       0

Nature and format of input:
     ntx     =       5, irest   =       1, ntrx    =       1

Nature and format of output:
     ntxo    =       2, ntpr    =     500, ntrx    =       1, ntwr    = 1000000
     iwrap   =       0, ntwx    =     500, ntwv    =       0, ntwe    =       0
     ioutfm  =       1, ntwprt  =       0, idecomp =       0, rbornstat=      0

Potential function:
     ntf     =       2, ntb     =       2, igb     =       0, nsnb    =      25
     ipol    =       0, gbsa    =       0, iesp    =       0
     dielc   =   1.00000, cut     =  10.00000, intdiel =   1.00000

Frozen or restrained atoms:
     ibelly  =       0, ntr     =       0

Molecular dynamics:
     nstlim  =   1000000, nscm    =      1000, nrespa  =         1
     t       =   0.00000, dt      =   0.00200, vlimit  =  20.00000

Langevin dynamics temperature regulation:
     ig      =  366442
     temp0   = 300.00000, tempi   =   0.00000, gamma_ln=   2.00000

Pressure regulation:
     ntp     =       1
     pres0   =   1.00000, comp    =  44.60000, taup    =   2.00000

SHAKE:
     ntc     =       2, jfastw  =       0
     tol     =   0.00001

Ewald parameters:
     verbose =       0, ew_type =       0, nbflag  =       1, use_pme =       1
     vdwmeth =       1, eedmeth =       1, netfrc  =       1
     Box X =   60.738   Box Y =   69.954   Box Z =   72.126
     Alpha =   90.000   Beta  =   90.000   Gamma =   90.000
     NFFT1 =   64       NFFT2 =   72       NFFT3 =   75
     Cutoff=   10.000   Tol   =0.100E-04
     Ewald Coefficient =  0.27511
     Interpolation order =    4

--------------------------------------------------------------------------------
   3.  ATOMIC COORDINATES AND VELOCITIES
--------------------------------------------------------------------------------

default_name
 begin time read from input coords =   200.000 ps

 Number of triangulated 3-point waters found:     9492

     Sum of charges from parm topology file =   0.00400194
     Forcing neutrality...

--------------------------------------------------------------------------------
   4.  RESULTS
 NSTEP =      500   TIME(PS) =     201.000  TEMP(K) =   301.60  PRESS =    52.2
 Etot   =    -76100.2996  EKtot   =     18593.2721  EPtot      =    -94693.5717
 BOND   =       428.5340  ANGLE   =      1017.6038  DIHED      =      1630.0469
 1-4 NB =       466.7099  1-4 EEL =      4338.7746  VDWAALS    =     12352.3367
 EELEC  =   -114927.5777  EHBOND  =         0.0000  RESTRAINT  =         0.0000
 EKCMT  =      8534.2358  VIRIAL  =      8189.0201  VOLUME     =    306185.3392
                                                    Density    =         1.0058
 Ewald error estimate:   0.6199E-04
 ------------------------------------------------------------------------------

      A V E R A G E S   O V E R    2000 S T E P S

 NSTEP =  1000000   TIME(PS) =    2200.000  TEMP(K) =   299.99  PRESS =     4.2
 Etot   =    -75954.2906  EKtot   =     18494.4747  EPtot      =    -94448.7653
 BOND   =       393.3176  ANGLE   =      1007.3174  DIHED      =      1620.6310
 1-4 NB =       475.5937  1-4 EEL =      4349.3716  VDWAALS    =     12275.4397
 EELEC  =   -114570.4363  EHBOND  =         0.0000  RESTRAINT  =         0.0000
 EKCMT  =      8515.0260  VIRIAL  =      8487.4462  VOLUME     =    306100.8822
                                                    Density    =         1.0061
 Ewald error estimate:   0.6536E-04
 ------------------------------------------------------------------------------

      R M S  F L U C T U A T I O N S

 NSTEP =  1000000   TIME(PS) =    2200.000  TEMP(K) =     1.67  PRESS =   126.1
 Etot   =       180.2728  EKtot   =       102.9980  EPtot      =       146.8018
 BOND   =        16.5598  ANGLE   =        24.4449  DIHED      =        14.4261
 1-4 NB =         9.0655  1-4 EEL =        26.0623  VDWAALS    =       139.5937
 EELEC  =       226.0453  EHBOND  =         0.0000  RESTRAINT  =         0.0000
 EKCMT  =        73.6804  VIRIAL  =       835.0901  VOLUME     =       361.6947
                                                    Density    =         0.0012
 Ewald error estimate:   0.5049E-04
 ------------------------------------------------------------------------------
