-------------------------------------------------------
          Amber 16 PMEMD                              2016
          -------------------------------------------------------

  [-O]verwriting output

File Assignments:

 Here is the input file:

&cntrl
imin = 0, irest = 1,ntx = 5, nstlim = 1000000, dt = 0.002,
ntc = 2, ntf = 2,
cut = 10.0, ntb = 2, ntp = 1, taup=2.0,
ntpr = 500, ntwx = 500,
ntt = 3, gamma_ln = 2.0,
temp0 = 300.0,
ioutfm = 1,
/

Note: ig = -1. Setting random seed to   357880 based on wallclock time in
      microseconds and disabling the synchronization of random numbers
      between tasks to improve performance.

--------------------------------------------------------------------------------
   1.  RESOURCE   USE:
--------------------------------------------------------------------------------

 getting box info from netcdf restart file
 NATOM  =   30513 NTYPES =      26 NBONH =   29492 MBONA  =    1051
 NTHETH =    2326 MTHETA =    1426 NPHIH =    4634 MPHIA  =    4385
 NHPARM =       0 NPARM  =       0 NNB   =   49308 NRES   =    9610
 NBONA  =    1051 NTHETA =    1426 NPHIA =    4385 NUMBND =      80
 NUMANG =     178 NPTRA  =     203 NATYP =      44 NPHB   =       1
 IFBOX  =       1 NMXRS  =      68 IFCAP =       0 NEXTRA =       0
 NCOPY  =       0

     BOX TYPE: RECTILINEAR

--------------------------------------------------------------------------------
   2.  CONTROL  DATA  FOR  THE  RUN
--------------------------------------------------------------------------------

default_name

General flags:
     imin    =       0, nmropt  =       0

Nature and format of input:
     ntx     =       5, irest   =       1, ntrx    =       1

Nature and format of output:
     ntxo    =       2, ntpr    =     500, ntrx    =       1, ntwr    = 1000000
     iwrap   =       0, ntwx    =     500, ntwv    =       0, ntwe    =       0
     ioutfm  =       1, ntwprt  =       0, idecomp =       0, rbornstat=      0

Potential function:
     ntf     =       2, ntb     =       2, igb     =       0, nsnb    =      25
     ipol    =       0, gbsa    =       0, iesp    =       0
     dielc   =   1.00000, cut     =  10.00000, intdiel =   1.00000

Frozen or restrained atoms:
     ibelly  =       0, ntr     =       0

Molecular dynamics:
     nstlim  =   1000000, nscm    =      1000, nrespa  =         1
     t       =   0.00000, dt      =   0.00200, vlimit  =  20.00000

Langevin dynamics temperature regulation:
     ig      =  357880
     temp0   = 300.00000, tempi   =   0.00000, gamma_ln=   2.00000

Pressure regulation:
     ntp     =       1
     pres0   =   1.00000, comp    =  44.60000, taup    =   2.00000

SHAKE:
     ntc     =       2, jfastw  =       0
     tol     =   0.00001

Ewald parameters:
     verbose =       0, ew_type =       0, nbflag  =       1, use_pme =       1
     vdwmeth =       1, eedmeth =       1, netfrc  =       1
     Box X =   60.702   Box Y =   69.912   Box Z =   72.083
     Alpha =   90.000   Beta  =   90.000   Gamma =   90.000
     NFFT1 =   64       NFFT2 =   72       NFFT3 =   75
     Cutoff=   10.000   Tol   =0.100E-04
     Ewald Coefficient =  0.27511
     Interpolation order =    4

--------------------------------------------------------------------------------
   3.  ATOMIC COORDINATES AND VELOCITIES
--------------------------------------------------------------------------------

default_name
 begin time read from input coords =  2200.000 ps

 Number of triangulated 3-point waters found:     9492

     Sum of charges from parm topology file =   0.00400194
     Forcing neutrality...

--------------------------------------------------------------------------------
   4.  RESULTS
 NSTEP =      500   TIME(PS) =    2201.000  TEMP(K) =   298.55  PRESS =   263.0
 Etot   =    -75791.0362  EKtot   =     18405.7793  EPtot      =    -94196.8155
 BOND   =       409.2099  ANGLE   =      1001.0290  DIHED      =      1597.8567
 1-4 NB =       463.8552  1-4 EEL =      4304.9112  VDWAALS    =     12456.1648
 EELEC  =   -114429.8423  EHBOND  =         0.0000  RESTRAINT  =         0.0000
 EKCMT  =      8483.2677  VIRIAL  =      6744.5444  VOLUME     =    306187.1929
                                                    Density    =         1.0058
 Ewald error estimate:   0.1801E-03
 ------------------------------------------------------------------------------

      A V E R A G E S   O V E R    2000 S T E P S

 NSTEP =  1000000   TIME(PS) =    4200.000  TEMP(K) =   300.01  PRESS =     1.4
 Etot   =    -75954.2232  EKtot   =     18495.3238  EPtot      =    -94449.5470
 BOND   =       393.8730  ANGLE   =      1004.6158  DIHED      =      1620.4996
 1-4 NB =       475.2801  1-4 EEL =      4363.6459  VDWAALS    =     12277.7550
 EELEC  =   -114585.2165  EHBOND  =         0.0000  RESTRAINT  =         0.0000
 EKCMT  =      8516.7579  VIRIAL  =      8507.4015  VOLUME     =    306134.5912
                                                    Density    =         1.0060
 Ewald error estimate:   0.6771E-04
 ------------------------------------------------------------------------------

      R M S  F L U C T U A T I O N S

 NSTEP =  1000000   TIME(PS) =    4200.000  TEMP(K) =     1.74  PRESS =   128.9
 Etot   =       179.6955  EKtot   =       107.0314  EPtot      =       147.2546
 BOND   =        16.7276  ANGLE   =        24.7775  DIHED      =        14.5056
 1-4 NB =         8.9911  1-4 EEL =        24.1846  VDWAALS    =       141.6902
 EELEC  =       226.7561  EHBOND  =         0.0000  RESTRAINT  =         0.0000
 EKCMT  =        70.3281  VIRIAL  =       853.4238  VOLUME     =       373.8131
                                                    Density    =         0.0012
 Ewald error estimate:   0.5001E-04
 ------------------------------------------------------------------------------
