-------------------------------------------------------
          Amber 16 PMEMD                              2016
          -------------------------------------------------------

  [-O]verwriting output

File Assignments:

 Here is the input file:

# Equlibrate the density
&cntrl
imin=0,
irest=1,
ntx=5,
nstlim=25000, dt=0.002,
ntc=2,ntf=2,
cut=8.0, ntb=2,
ntp=1, taup=1.0,
ntpr=500, ntwx=500,
ntt=3, gamma_ln=2.0,
temp0=300.0,
ntr=1, restraintmask=':1-118',
restraint_wt=2.0,
ioutfm = 1,
/

Note: ig = -1. Setting random seed to   525207 based on wallclock time in
      microseconds and disabling the synchronization of random numbers
      between tasks to improve performance.

--------------------------------------------------------------------------------
   1.  RESOURCE   USE:
--------------------------------------------------------------------------------

 getting box info from netcdf restart file
 NATOM  =   30513 NTYPES =      26 NBONH =   29492 MBONA  =    1051
 NTHETH =    2326 MTHETA =    1426 NPHIH =    4634 MPHIA  =    4385
 NHPARM =       0 NPARM  =       0 NNB   =   49308 NRES   =    9610
 NBONA  =    1051 NTHETA =    1426 NPHIA =    4385 NUMBND =      80
 NUMANG =     178 NPTRA  =     203 NATYP =      44 NPHB   =       1
 IFBOX  =       1 NMXRS  =      68 IFCAP =       0 NEXTRA =       0
 NCOPY  =       0

     BOX TYPE: RECTILINEAR

--------------------------------------------------------------------------------
   2.  CONTROL  DATA  FOR  THE  RUN
--------------------------------------------------------------------------------

default_name

General flags:
     imin    =       0, nmropt  =       0

Nature and format of input:
     ntx     =       5, irest   =       1, ntrx    =       1

Nature and format of output:
     ntxo    =       2, ntpr    =     500, ntrx    =       1, ntwr    =   25000
     iwrap   =       0, ntwx    =     500, ntwv    =       0, ntwe    =       0
     ioutfm  =       1, ntwprt  =       0, idecomp =       0, rbornstat=      0

Potential function:
     ntf     =       2, ntb     =       2, igb     =       0, nsnb    =      25
     ipol    =       0, gbsa    =       0, iesp    =       0
     dielc   =   1.00000, cut     =   8.00000, intdiel =   1.00000

Frozen or restrained atoms:
     ibelly  =       0, ntr     =       1
     restraint_wt =   2.00000

Molecular dynamics:
     nstlim  =     25000, nscm    =         0, nrespa  =         1
     t       =   0.00000, dt      =   0.00200, vlimit  =  20.00000

Langevin dynamics temperature regulation:
     ig      =  525207
     temp0   = 300.00000, tempi   =   0.00000, gamma_ln=   2.00000

Pressure regulation:
     ntp     =       1
     pres0   =   1.00000, comp    =  44.60000, taup    =   1.00000

SHAKE:
     ntc     =       2, jfastw  =       0
     tol     =   0.00001

Ewald parameters:
     verbose =       0, ew_type =       0, nbflag  =       1, use_pme =       1
     vdwmeth =       1, eedmeth =       1, netfrc  =       1
     Box X =   65.419   Box Y =   75.345   Box Z =   77.685
     Alpha =   90.000   Beta  =   90.000   Gamma =   90.000
     NFFT1 =   72       NFFT2 =   80       NFFT3 =   80
     Cutoff=    8.000   Tol   =0.100E-04
     Ewald Coefficient =  0.34864
     Interpolation order =    4

    LOADING THE CONSTRAINED ATOMS AS GROUPS

   5.  REFERENCE ATOM COORDINATES

  default_name
     Mask :1-118; matches  2037 atoms

--------------------------------------------------------------------------------
   3.  ATOMIC COORDINATES AND VELOCITIES
--------------------------------------------------------------------------------

default_name
 begin time read from input coords =    50.000 ps

 Number of triangulated 3-point waters found:     9492

     Sum of charges from parm topology file =   0.00400194
     Forcing neutrality...

--------------------------------------------------------------------------------
   4.  RESULTS
 NSTEP =      500   TIME(PS) =      51.000  TEMP(K) =   300.45  PRESS =  -253.8
 Etot   =    -73773.0188  EKtot   =     18522.4826  EPtot      =    -92295.5013
 BOND   =       396.3541  ANGLE   =       948.8791  DIHED      =      1631.3546
 1-4 NB =       476.4401  1-4 EEL =      4389.8336  VDWAALS    =     12294.0249
 EELEC  =   -112624.8619  EHBOND  =         0.0000  RESTRAINT  =       192.4742
 EAMBER (non-restraint)  =    -92487.9755
 EKCMT  =      8495.1426  VIRIAL  =     10571.1614  VOLUME     =    378875.1760
                                                    Density    =         0.8129
 Ewald error estimate:   0.5690E-04
 ------------------------------------------------------------------------------

      A V E R A G E S   O V E R      50 S T E P S

 NSTEP =    25000   TIME(PS) =     100.000  TEMP(K) =   300.33  PRESS =   -62.8
 Etot   =    -75063.6245  EKtot   =     18515.3568  EPtot      =    -93578.9813
 BOND   =       382.4694  ANGLE   =       969.6400  DIHED      =      1611.1195
 1-4 NB =       478.5553  1-4 EEL =      4376.2125  VDWAALS    =     12217.5343
 EELEC  =   -113824.2257  EHBOND  =         0.0000  RESTRAINT  =       209.7134
 EAMBER (non-restraint)  =    -93788.6947
 EKCMT  =      8532.0765  VIRIAL  =      9015.4369  VOLUME     =    326187.1272
                                                    Density    =         0.9479
 Ewald error estimate:   0.5789E-04
 ------------------------------------------------------------------------------

      R M S  F L U C T U A T I O N S

 NSTEP =    25000   TIME(PS) =     100.000  TEMP(K) =     1.73  PRESS =   131.3
 Etot   =       623.2963  EKtot   =       106.3726  EPtot      =       606.6387
 BOND   =        16.7795  ANGLE   =        17.1694  DIHED      =        11.8483
 1-4 NB =         8.5661  1-4 EEL =        19.3689  VDWAALS    =       127.3793
 EELEC  =       668.0604  EHBOND  =         0.0000  RESTRAINT  =        12.8468
 EAMBER (non-restraint)  =       593.7919
 EKCMT  =        74.5967  VIRIAL  =       990.8132  VOLUME     =     21141.2977
                                                    Density    =         0.0581
 Ewald error estimate:   0.3916E-04
 ------------------------------------------------------------------------------
