-------------------------------------------------------
          Amber 16 PMEMD                              2016
          -------------------------------------------------------

  [-O]verwriting output

File Assignments:

 Here is the input file:

# Equil.in
&cntrl
imin = 0, irest = 1,ntx = 5, nstlim = 50000, dt = 0.002,
ntc = 2, ntf = 2,
cut = 10.0, ntb = 2, ntp = 1, taup=2.0,
ntpr = 500, ntwx = 500,
ntt = 3, gamma_ln = 2.0,
temp0 = 300.0,
ntr = 1, restraintmask = ':1-118',
restraint_wt = 0.5,
ioutfm = 1,
/

Note: ig = -1. Setting random seed to   376434 based on wallclock time in
      microseconds and disabling the synchronization of random numbers
      between tasks to improve performance.

--------------------------------------------------------------------------------
   1.  RESOURCE   USE:
--------------------------------------------------------------------------------

 getting box info from netcdf restart file
 NATOM  =   30513 NTYPES =      26 NBONH =   29492 MBONA  =    1051
 NTHETH =    2326 MTHETA =    1426 NPHIH =    4634 MPHIA  =    4385
 NHPARM =       0 NPARM  =       0 NNB   =   49308 NRES   =    9610
 NBONA  =    1051 NTHETA =    1426 NPHIA =    4385 NUMBND =      80
 NUMANG =     178 NPTRA  =     203 NATYP =      44 NPHB   =       1
 IFBOX  =       1 NMXRS  =      68 IFCAP =       0 NEXTRA =       0
 NCOPY  =       0

     BOX TYPE: RECTILINEAR

--------------------------------------------------------------------------------
   2.  CONTROL  DATA  FOR  THE  RUN
--------------------------------------------------------------------------------

default_name

General flags:
     imin    =       0, nmropt  =       0

Nature and format of input:
     ntx     =       5, irest   =       1, ntrx    =       1

Nature and format of output:
     ntxo    =       2, ntpr    =     500, ntrx    =       1, ntwr    =   50000
     iwrap   =       0, ntwx    =     500, ntwv    =       0, ntwe    =       0
     ioutfm  =       1, ntwprt  =       0, idecomp =       0, rbornstat=      0

Potential function:
     ntf     =       2, ntb     =       2, igb     =       0, nsnb    =      25
     ipol    =       0, gbsa    =       0, iesp    =       0
     dielc   =   1.00000, cut     =  10.00000, intdiel =   1.00000

Frozen or restrained atoms:
     ibelly  =       0, ntr     =       1
     restraint_wt =   0.50000

Molecular dynamics:
     nstlim  =     50000, nscm    =         0, nrespa  =         1
     t       =   0.00000, dt      =   0.00200, vlimit  =  20.00000

Langevin dynamics temperature regulation:
     ig      =  376434
     temp0   = 300.00000, tempi   =   0.00000, gamma_ln=   2.00000

Pressure regulation:
     ntp     =       1
     pres0   =   1.00000, comp    =  44.60000, taup    =   2.00000

SHAKE:
     ntc     =       2, jfastw  =       0
     tol     =   0.00001

Ewald parameters:
     verbose =       0, ew_type =       0, nbflag  =       1, use_pme =       1
     vdwmeth =       1, eedmeth =       1, netfrc  =       1
     Box X =   60.761   Box Y =   69.980   Box Z =   72.153
     Alpha =   90.000   Beta  =   90.000   Gamma =   90.000
     NFFT1 =   64       NFFT2 =   72       NFFT3 =   75
     Cutoff=   10.000   Tol   =0.100E-04
     Ewald Coefficient =  0.27511
     Interpolation order =    4

    LOADING THE CONSTRAINED ATOMS AS GROUPS

   5.  REFERENCE ATOM COORDINATES

  default_name
     Mask :1-118; matches  2037 atoms

--------------------------------------------------------------------------------
   3.  ATOMIC COORDINATES AND VELOCITIES
--------------------------------------------------------------------------------

default_name
 begin time read from input coords =   100.000 ps

 Number of triangulated 3-point waters found:     9492

     Sum of charges from parm topology file =   0.00400194
     Forcing neutrality...

--------------------------------------------------------------------------------
   4.  RESULTS
 NSTEP =      500   TIME(PS) =     101.000  TEMP(K) =   322.57  PRESS =   -15.5
 Etot   =    -71837.7163  EKtot   =     19886.1211  EPtot      =    -91723.8374
 BOND   =       423.9665  ANGLE   =      1031.1066  DIHED      =      1673.5821
 1-4 NB =       488.0272  1-4 EEL =      4351.3586  VDWAALS    =     11872.6951
 EELEC  =   -112012.9413  EHBOND  =         0.0000  RESTRAINT  =       448.3678
 EAMBER (non-restraint)  =    -92172.2052
 EKCMT  =      9296.4353  VIRIAL  =      9401.0841  VOLUME     =    313366.3460
                                                    Density    =         0.9828
 Ewald error estimate:   0.1413E-03
 ------------------------------------------------------------------------------

      A V E R A G E S   O V E R     100 S T E P S

 NSTEP =    50000   TIME(PS) =     200.000  TEMP(K) =   300.58  PRESS =    17.3
 Etot   =    -75703.4216  EKtot   =     18530.3642  EPtot      =    -94233.7858
 BOND   =       386.0953  ANGLE   =       992.0587  DIHED      =      1623.5580
 1-4 NB =       478.0151  1-4 EEL =      4369.3069  VDWAALS    =     12250.6244
 EELEC  =   -114462.0905  EHBOND  =         0.0000  RESTRAINT  =       128.6464
 EAMBER (non-restraint)  =    -94362.4322
 EKCMT  =      8527.8475  VIRIAL  =      8414.1876  VOLUME     =    306614.4269
                                                    Density    =         1.0045
 Ewald error estimate:   0.6789E-04
 ------------------------------------------------------------------------------

      R M S  F L U C T U A T I O N S

 NSTEP =    50000   TIME(PS) =     200.000  TEMP(K) =     2.79  PRESS =   139.0
 Etot   =       445.6122  EKtot   =       171.9301  EPtot      =       308.6436
 BOND   =        16.5469  ANGLE   =        23.1115  DIHED      =        13.9209
 1-4 NB =         8.3540  1-4 EEL =        20.7621  VDWAALS    =       154.7252
 EELEC  =       363.3210  EHBOND  =         0.0000  RESTRAINT  =        32.7725
 EAMBER (non-restraint)  =       275.8710
 EKCMT  =       102.7704  VIRIAL  =       916.7123  VOLUME     =      1165.7718
                                                    Density    =         0.0038
 Ewald error estimate:   0.4538E-04
 ------------------------------------------------------------------------------
