-------------------------------------------------------
          Amber 16 PMEMD                              2016
          -------------------------------------------------------

  [-O]verwriting output

File Assignments:

 Here is the input file:

# Equlibrate the density
&cntrl
imin=0,
irest=1,
ntx=5,
nstlim=25000, dt=0.002,
ntc=2,ntf=2,
cut=8.0, ntb=2,
ntp=1, taup=1.0,
ntpr=500, ntwx=500,
ntt=3, gamma_ln=2.0,
temp0=300.0,
ntr=1, restraintmask=':1-118',
restraint_wt=2.0,
ioutfm = 1,
/

Note: ig = -1. Setting random seed to   206861 based on wallclock time in
      microseconds and disabling the synchronization of random numbers
      between tasks to improve performance.

--------------------------------------------------------------------------------
   1.  RESOURCE   USE:
--------------------------------------------------------------------------------

 getting box info from netcdf restart file
 NATOM  =   30513 NTYPES =      26 NBONH =   29492 MBONA  =    1051
 NTHETH =    2326 MTHETA =    1426 NPHIH =    4634 MPHIA  =    4385
 NHPARM =       0 NPARM  =       0 NNB   =   49308 NRES   =    9610
 NBONA  =    1051 NTHETA =    1426 NPHIA =    4385 NUMBND =      80
 NUMANG =     178 NPTRA  =     203 NATYP =      44 NPHB   =       1
 IFBOX  =       1 NMXRS  =      68 IFCAP =       0 NEXTRA =       0
 NCOPY  =       0

     BOX TYPE: RECTILINEAR

--------------------------------------------------------------------------------
   2.  CONTROL  DATA  FOR  THE  RUN
--------------------------------------------------------------------------------

default_name

General flags:
     imin    =       0, nmropt  =       0

Nature and format of input:
     ntx     =       5, irest   =       1, ntrx    =       1

Nature and format of output:
     ntxo    =       2, ntpr    =     500, ntrx    =       1, ntwr    =   25000
     iwrap   =       0, ntwx    =     500, ntwv    =       0, ntwe    =       0
     ioutfm  =       1, ntwprt  =       0, idecomp =       0, rbornstat=      0

Potential function:
     ntf     =       2, ntb     =       2, igb     =       0, nsnb    =      25
     ipol    =       0, gbsa    =       0, iesp    =       0
     dielc   =   1.00000, cut     =   8.00000, intdiel =   1.00000

Frozen or restrained atoms:
     ibelly  =       0, ntr     =       1
     restraint_wt =   2.00000

Molecular dynamics:
     nstlim  =     25000, nscm    =         0, nrespa  =         1
     t       =   0.00000, dt      =   0.00200, vlimit  =  20.00000

Langevin dynamics temperature regulation:
     ig      =  206861
     temp0   = 300.00000, tempi   =   0.00000, gamma_ln=   2.00000

Pressure regulation:
     ntp     =       1
     pres0   =   1.00000, comp    =  44.60000, taup    =   1.00000

SHAKE:
     ntc     =       2, jfastw  =       0
     tol     =   0.00001

Ewald parameters:
     verbose =       0, ew_type =       0, nbflag  =       1, use_pme =       1
     vdwmeth =       1, eedmeth =       1, netfrc  =       1
     Box X =   65.419   Box Y =   75.345   Box Z =   77.685
     Alpha =   90.000   Beta  =   90.000   Gamma =   90.000
     NFFT1 =   72       NFFT2 =   80       NFFT3 =   80
     Cutoff=    8.000   Tol   =0.100E-04
     Ewald Coefficient =  0.34864
     Interpolation order =    4

    LOADING THE CONSTRAINED ATOMS AS GROUPS

   5.  REFERENCE ATOM COORDINATES

  default_name
     Mask :1-118; matches  2037 atoms

--------------------------------------------------------------------------------
   3.  ATOMIC COORDINATES AND VELOCITIES
--------------------------------------------------------------------------------

default_name
 begin time read from input coords =    50.000 ps

 Number of triangulated 3-point waters found:     9492

     Sum of charges from parm topology file =   0.00400194
     Forcing neutrality...

--------------------------------------------------------------------------------
   4.  RESULTS
 NSTEP =      500   TIME(PS) =      51.000  TEMP(K) =   296.77  PRESS =   -18.0
 Etot   =    -74301.5134  EKtot   =     18295.5138  EPtot      =    -92597.0271
 BOND   =       361.4630  ANGLE   =       942.8585  DIHED      =      1598.7773
 1-4 NB =       476.1544  1-4 EEL =      4394.1438  VDWAALS    =     12585.9035
 EELEC  =   -113146.1270  EHBOND  =         0.0000  RESTRAINT  =       189.7993
 EAMBER (non-restraint)  =    -92786.8264
 EKCMT  =      8391.1840  VIRIAL  =      8538.7456  VOLUME     =    379925.6532
                                                    Density    =         0.8106
 Ewald error estimate:   0.6191E-04
 ------------------------------------------------------------------------------

      A V E R A G E S   O V E R      50 S T E P S

 NSTEP =    25000   TIME(PS) =     100.000  TEMP(K) =   300.15  PRESS =   -88.0
 Etot   =    -75073.0616  EKtot   =     18504.2890  EPtot      =    -93577.3506
 BOND   =       382.2536  ANGLE   =       967.9401  DIHED      =      1610.5750
 1-4 NB =       477.8265  1-4 EEL =      4367.7811  VDWAALS    =     12199.1675
 EELEC  =   -113793.2417  EHBOND  =         0.0000  RESTRAINT  =       210.3474
 EAMBER (non-restraint)  =    -93787.6980
 EKCMT  =      8523.3256  VIRIAL  =      9171.9450  VOLUME     =    327758.3905
                                                    Density    =         0.9438
 Ewald error estimate:   0.5247E-04
 ------------------------------------------------------------------------------

      R M S  F L U C T U A T I O N S

 NSTEP =    25000   TIME(PS) =     100.000  TEMP(K) =     1.64  PRESS =   120.7
 Etot   =       609.0835  EKtot   =       101.1902  EPtot      =       594.4054
 BOND   =        13.8476  ANGLE   =        27.6574  DIHED      =        11.6990
 1-4 NB =         6.9583  1-4 EEL =        23.1523  VDWAALS    =       146.6317
 EELEC  =       612.4951  EHBOND  =         0.0000  RESTRAINT  =        10.5204
 EAMBER (non-restraint)  =       583.8850
 EKCMT  =        61.4733  VIRIAL  =       870.1860  VOLUME     =     22225.9476
                                                    Density    =         0.0608
 Ewald error estimate:   0.3757E-04
 ------------------------------------------------------------------------------
