-------------------------------------------------------
          Amber 16 PMEMD                              2016
          -------------------------------------------------------

  [-O]verwriting output

File Assignments:

 Here is the input file:

# Equil.in
&cntrl
imin = 0, irest = 1,ntx = 5, nstlim = 50000, dt = 0.002,
ntc = 2, ntf = 2,
cut = 10.0, ntb = 2, ntp = 1, taup=2.0,
ntpr = 500, ntwx = 500,
ntt = 3, gamma_ln = 2.0,
temp0 = 300.0,
ntr = 1, restraintmask = ':1-118',
restraint_wt = 0.5,
ioutfm = 1,
/

Note: ig = -1. Setting random seed to   951840 based on wallclock time in
      microseconds and disabling the synchronization of random numbers
      between tasks to improve performance.

--------------------------------------------------------------------------------
   1.  RESOURCE   USE:
--------------------------------------------------------------------------------

 getting box info from netcdf restart file
 NATOM  =   30513 NTYPES =      26 NBONH =   29492 MBONA  =    1051
 NTHETH =    2326 MTHETA =    1426 NPHIH =    4634 MPHIA  =    4385
 NHPARM =       0 NPARM  =       0 NNB   =   49308 NRES   =    9610
 NBONA  =    1051 NTHETA =    1426 NPHIA =    4385 NUMBND =      80
 NUMANG =     178 NPTRA  =     203 NATYP =      44 NPHB   =       1
 IFBOX  =       1 NMXRS  =      68 IFCAP =       0 NEXTRA =       0
 NCOPY  =       0

     BOX TYPE: RECTILINEAR

--------------------------------------------------------------------------------
   2.  CONTROL  DATA  FOR  THE  RUN
--------------------------------------------------------------------------------

default_name

General flags:
     imin    =       0, nmropt  =       0

Nature and format of input:
     ntx     =       5, irest   =       1, ntrx    =       1

Nature and format of output:
     ntxo    =       2, ntpr    =     500, ntrx    =       1, ntwr    =   50000
     iwrap   =       0, ntwx    =     500, ntwv    =       0, ntwe    =       0
     ioutfm  =       1, ntwprt  =       0, idecomp =       0, rbornstat=      0

Potential function:
     ntf     =       2, ntb     =       2, igb     =       0, nsnb    =      25
     ipol    =       0, gbsa    =       0, iesp    =       0
     dielc   =   1.00000, cut     =  10.00000, intdiel =   1.00000

Frozen or restrained atoms:
     ibelly  =       0, ntr     =       1
     restraint_wt =   0.50000

Molecular dynamics:
     nstlim  =     50000, nscm    =         0, nrespa  =         1
     t       =   0.00000, dt      =   0.00200, vlimit  =  20.00000

Langevin dynamics temperature regulation:
     ig      =  951840
     temp0   = 300.00000, tempi   =   0.00000, gamma_ln=   2.00000

Pressure regulation:
     ntp     =       1
     pres0   =   1.00000, comp    =  44.60000, taup    =   2.00000

SHAKE:
     ntc     =       2, jfastw  =       0
     tol     =   0.00001

Ewald parameters:
     verbose =       0, ew_type =       0, nbflag  =       1, use_pme =       1
     vdwmeth =       1, eedmeth =       1, netfrc  =       1
     Box X =   60.793   Box Y =   70.017   Box Z =   72.192
     Alpha =   90.000   Beta  =   90.000   Gamma =   90.000
     NFFT1 =   64       NFFT2 =   72       NFFT3 =   75
     Cutoff=   10.000   Tol   =0.100E-04
     Ewald Coefficient =  0.27511
     Interpolation order =    4

    LOADING THE CONSTRAINED ATOMS AS GROUPS

   5.  REFERENCE ATOM COORDINATES

  default_name
     Mask :1-118; matches  2037 atoms

--------------------------------------------------------------------------------
   3.  ATOMIC COORDINATES AND VELOCITIES
--------------------------------------------------------------------------------

default_name
 begin time read from input coords =   100.000 ps

 Number of triangulated 3-point waters found:     9492

     Sum of charges from parm topology file =   0.00400194
     Forcing neutrality...

--------------------------------------------------------------------------------
   4.  RESULTS
 NSTEP =      500   TIME(PS) =     101.000  TEMP(K) =   319.58  PRESS =  -126.3
 Etot   =    -71912.9828  EKtot   =     19701.7263  EPtot      =    -91614.7091
 BOND   =       372.5845  ANGLE   =      1069.1505  DIHED      =      1699.1439
 1-4 NB =       485.2821  1-4 EEL =      4377.9603  VDWAALS    =     11792.8712
 EELEC  =   -111876.3730  EHBOND  =         0.0000  RESTRAINT  =       464.6713
 EAMBER (non-restraint)  =    -92079.3805
 EKCMT  =      9244.9879  VIRIAL  =     10100.2888  VOLUME     =    313535.3636
                                                    Density    =         0.9823
 Ewald error estimate:   0.1360E-04
 ------------------------------------------------------------------------------

      A V E R A G E S   O V E R     100 S T E P S

 NSTEP =    50000   TIME(PS) =     200.000  TEMP(K) =   300.28  PRESS =     8.1
 Etot   =    -75797.4925  EKtot   =     18512.0448  EPtot      =    -94309.5373
 BOND   =       387.4279  ANGLE   =       983.9659  DIHED      =      1623.2651
 1-4 NB =       479.4935  1-4 EEL =      4373.8250  VDWAALS    =     12235.0884
 EELEC  =   -114511.0426  EHBOND  =         0.0000  RESTRAINT  =       118.4395
 EAMBER (non-restraint)  =    -94427.9768
 EKCMT  =      8522.6327  VIRIAL  =      8470.3576  VOLUME     =    306416.9266
                                                    Density    =         1.0051
 Ewald error estimate:   0.7150E-04
 ------------------------------------------------------------------------------

      R M S  F L U C T U A T I O N S

 NSTEP =    50000   TIME(PS) =     200.000  TEMP(K) =     2.62  PRESS =   132.4
 Etot   =       462.4576  EKtot   =       161.7381  EPtot      =       338.2054
 BOND   =        15.3380  ANGLE   =        28.1562  DIHED      =        14.3694
 1-4 NB =         7.9937  1-4 EEL =        20.6314  VDWAALS    =       148.7242
 EELEC  =       384.9445  EHBOND  =         0.0000  RESTRAINT  =        35.4693
 EAMBER (non-restraint)  =       302.7361
 EKCMT  =        98.4876  VIRIAL  =       900.9170  VOLUME     =      1210.4996
                                                    Density    =         0.0039
 Ewald error estimate:   0.5344E-04
 ------------------------------------------------------------------------------
