-------------------------------------------------------
          Amber 16 PMEMD                              2016
          -------------------------------------------------------

  [-O]verwriting output

File Assignments:

 Here is the input file:

# Equlibrate the density
&cntrl
imin=0,
irest=1,
ntx=5,
nstlim=25000, dt=0.002,
ntc=2,ntf=2,
cut=8.0, ntb=2,
ntp=1, taup=1.0,
ntpr=500, ntwx=500,
ntt=3, gamma_ln=2.0,
temp0=300.0,
ntr=1, restraintmask=':1-118',
restraint_wt=2.0,
ioutfm = 1,
/

Note: ig = -1. Setting random seed to   103592 based on wallclock time in
      microseconds and disabling the synchronization of random numbers
      between tasks to improve performance.

--------------------------------------------------------------------------------
   1.  RESOURCE   USE:
--------------------------------------------------------------------------------

 getting box info from netcdf restart file
 NATOM  =   30525 NTYPES =      26 NBONH =   29504 MBONA  =    1051
 NTHETH =    2326 MTHETA =    1426 NPHIH =    4633 MPHIA  =    4385
 NHPARM =       0 NPARM  =       0 NNB   =   49324 NRES   =    9614
 NBONA  =    1051 NTHETA =    1426 NPHIA =    4385 NUMBND =      80
 NUMANG =     178 NPTRA  =     203 NATYP =      44 NPHB   =       1
 IFBOX  =       1 NMXRS  =      68 IFCAP =       0 NEXTRA =       0
 NCOPY  =       0

     BOX TYPE: RECTILINEAR

--------------------------------------------------------------------------------
   2.  CONTROL  DATA  FOR  THE  RUN
--------------------------------------------------------------------------------

default_name

General flags:
     imin    =       0, nmropt  =       0

Nature and format of input:
     ntx     =       5, irest   =       1, ntrx    =       1

Nature and format of output:
     ntxo    =       2, ntpr    =     500, ntrx    =       1, ntwr    =   25000
     iwrap   =       0, ntwx    =     500, ntwv    =       0, ntwe    =       0
     ioutfm  =       1, ntwprt  =       0, idecomp =       0, rbornstat=      0

Potential function:
     ntf     =       2, ntb     =       2, igb     =       0, nsnb    =      25
     ipol    =       0, gbsa    =       0, iesp    =       0
     dielc   =   1.00000, cut     =   8.00000, intdiel =   1.00000

Frozen or restrained atoms:
     ibelly  =       0, ntr     =       1
     restraint_wt =   2.00000

Molecular dynamics:
     nstlim  =     25000, nscm    =         0, nrespa  =         1
     t       =   0.00000, dt      =   0.00200, vlimit  =  20.00000

Langevin dynamics temperature regulation:
     ig      =  103592
     temp0   = 300.00000, tempi   =   0.00000, gamma_ln=   2.00000

Pressure regulation:
     ntp     =       1
     pres0   =   1.00000, comp    =  44.60000, taup    =   1.00000

SHAKE:
     ntc     =       2, jfastw  =       0
     tol     =   0.00001

Ewald parameters:
     verbose =       0, ew_type =       0, nbflag  =       1, use_pme =       1
     vdwmeth =       1, eedmeth =       1, netfrc  =       1
     Box X =   65.419   Box Y =   75.345   Box Z =   77.685
     Alpha =   90.000   Beta  =   90.000   Gamma =   90.000
     NFFT1 =   72       NFFT2 =   80       NFFT3 =   80
     Cutoff=    8.000   Tol   =0.100E-04
     Ewald Coefficient =  0.34864
     Interpolation order =    4

    LOADING THE CONSTRAINED ATOMS AS GROUPS

   5.  REFERENCE ATOM COORDINATES

  default_name
     Mask :1-118; matches  2037 atoms

--------------------------------------------------------------------------------
   3.  ATOMIC COORDINATES AND VELOCITIES
--------------------------------------------------------------------------------

default_name
 begin time read from input coords =    50.000 ps

 Number of triangulated 3-point waters found:     9496

     Sum of charges from parm topology file =   0.00200294
     Forcing neutrality...

--------------------------------------------------------------------------------
   4.  RESULTS
 NSTEP =      500   TIME(PS) =      51.000  TEMP(K) =   299.68  PRESS =  -288.4
 Etot   =    -73751.5659  EKtot   =     18482.3166  EPtot      =    -92233.8824
 BOND   =       387.2560  ANGLE   =       949.4749  DIHED      =      1592.0854
 1-4 NB =       498.2880  1-4 EEL =      4366.0528  VDWAALS    =     12185.8920
 EELEC  =   -112401.0698  EHBOND  =         0.0000  RESTRAINT  =       188.1383
 EAMBER (non-restraint)  =    -92422.0207
 EKCMT  =      8452.1334  VIRIAL  =     10819.3412  VOLUME     =    380170.1484
                                                    Density    =         0.8104
 Ewald error estimate:   0.1190E-03
 ------------------------------------------------------------------------------

      A V E R A G E S   O V E R      50 S T E P S

 NSTEP =    25000   TIME(PS) =     100.000  TEMP(K) =   299.71  PRESS =  -112.8
 Etot   =    -75215.1904  EKtot   =     18484.1165  EPtot      =    -93699.3069
 BOND   =       381.8547  ANGLE   =       966.3693  DIHED      =      1607.9238
 1-4 NB =       477.6885  1-4 EEL =      4361.2182  VDWAALS    =     12213.6463
 EELEC  =   -113915.2682  EHBOND  =         0.0000  RESTRAINT  =       207.2604
 EAMBER (non-restraint)  =    -93906.5674
 EKCMT  =      8518.1996  VIRIAL  =      9342.2320  VOLUME     =    325904.7254
                                                    Density    =         0.9493
 Ewald error estimate:   0.5911E-04
 ------------------------------------------------------------------------------

      R M S  F L U C T U A T I O N S

 NSTEP =    25000   TIME(PS) =     100.000  TEMP(K) =     1.57  PRESS =   128.8
 Etot   =       677.2408  EKtot   =        97.0139  EPtot      =       693.9390
 BOND   =        17.9333  ANGLE   =        22.6903  DIHED      =        12.5395
 1-4 NB =         7.1159  1-4 EEL =        19.7377  VDWAALS    =       115.1081
 EELEC  =       712.1340  EHBOND  =         0.0000  RESTRAINT  =         9.0851
 EAMBER (non-restraint)  =       684.8539
 EKCMT  =        65.7103  VIRIAL  =       921.1357  VOLUME     =     21820.6035
                                                    Density    =         0.0597
 Ewald error estimate:   0.4454E-04
 ------------------------------------------------------------------------------
