-------------------------------------------------------
          Amber 16 PMEMD                              2016
          -------------------------------------------------------

  [-O]verwriting output

File Assignments:

 Here is the input file:

# Equil.in
&cntrl
imin = 0, irest = 1,ntx = 5, nstlim = 50000, dt = 0.002,
ntc = 2, ntf = 2,
cut = 10.0, ntb = 2, ntp = 1, taup=2.0,
ntpr = 500, ntwx = 500,
ntt = 3, gamma_ln = 2.0,
temp0 = 300.0,
ntr = 1, restraintmask = ':1-118',
restraint_wt = 0.5,
ioutfm = 1,
/

Note: ig = -1. Setting random seed to    16216 based on wallclock time in
      microseconds and disabling the synchronization of random numbers
      between tasks to improve performance.

--------------------------------------------------------------------------------
   1.  RESOURCE   USE:
--------------------------------------------------------------------------------

 getting box info from netcdf restart file
 NATOM  =   30525 NTYPES =      26 NBONH =   29504 MBONA  =    1051
 NTHETH =    2326 MTHETA =    1426 NPHIH =    4633 MPHIA  =    4385
 NHPARM =       0 NPARM  =       0 NNB   =   49324 NRES   =    9614
 NBONA  =    1051 NTHETA =    1426 NPHIA =    4385 NUMBND =      80
 NUMANG =     178 NPTRA  =     203 NATYP =      44 NPHB   =       1
 IFBOX  =       1 NMXRS  =      68 IFCAP =       0 NEXTRA =       0
 NCOPY  =       0

     BOX TYPE: RECTILINEAR

--------------------------------------------------------------------------------
   2.  CONTROL  DATA  FOR  THE  RUN
--------------------------------------------------------------------------------

default_name

General flags:
     imin    =       0, nmropt  =       0

Nature and format of input:
     ntx     =       5, irest   =       1, ntrx    =       1

Nature and format of output:
     ntxo    =       2, ntpr    =     500, ntrx    =       1, ntwr    =   50000
     iwrap   =       0, ntwx    =     500, ntwv    =       0, ntwe    =       0
     ioutfm  =       1, ntwprt  =       0, idecomp =       0, rbornstat=      0

Potential function:
     ntf     =       2, ntb     =       2, igb     =       0, nsnb    =      25
     ipol    =       0, gbsa    =       0, iesp    =       0
     dielc   =   1.00000, cut     =  10.00000, intdiel =   1.00000

Frozen or restrained atoms:
     ibelly  =       0, ntr     =       1
     restraint_wt =   0.50000

Molecular dynamics:
     nstlim  =     50000, nscm    =         0, nrespa  =         1
     t       =   0.00000, dt      =   0.00200, vlimit  =  20.00000

Langevin dynamics temperature regulation:
     ig      =   16216
     temp0   = 300.00000, tempi   =   0.00000, gamma_ln=   2.00000

Pressure regulation:
     ntp     =       1
     pres0   =   1.00000, comp    =  44.60000, taup    =   2.00000

SHAKE:
     ntc     =       2, jfastw  =       0
     tol     =   0.00001

Ewald parameters:
     verbose =       0, ew_type =       0, nbflag  =       1, use_pme =       1
     vdwmeth =       1, eedmeth =       1, netfrc  =       1
     Box X =   60.758   Box Y =   69.976   Box Z =   72.150
     Alpha =   90.000   Beta  =   90.000   Gamma =   90.000
     NFFT1 =   64       NFFT2 =   72       NFFT3 =   75
     Cutoff=   10.000   Tol   =0.100E-04
     Ewald Coefficient =  0.27511
     Interpolation order =    4

    LOADING THE CONSTRAINED ATOMS AS GROUPS

   5.  REFERENCE ATOM COORDINATES

  default_name
     Mask :1-118; matches  2037 atoms

--------------------------------------------------------------------------------
   3.  ATOMIC COORDINATES AND VELOCITIES
--------------------------------------------------------------------------------

default_name
 begin time read from input coords =   100.000 ps

 Number of triangulated 3-point waters found:     9496

     Sum of charges from parm topology file =   0.00200294
     Forcing neutrality...

--------------------------------------------------------------------------------
   4.  RESULTS
 NSTEP =      500   TIME(PS) =     101.000  TEMP(K) =   320.67  PRESS =    41.3
 Etot   =    -71999.8057  EKtot   =     19777.0511  EPtot      =    -91776.8568
 BOND   =       398.4226  ANGLE   =      1053.9816  DIHED      =      1652.4175
 1-4 NB =       478.3501  1-4 EEL =      4372.8869  VDWAALS    =     11931.3891
 EELEC  =   -112091.9414  EHBOND  =         0.0000  RESTRAINT  =       427.6367
 EAMBER (non-restraint)  =    -92204.4935
 EKCMT  =      9228.3739  VIRIAL  =      8948.3245  VOLUME     =    313711.6912
                                                    Density    =         0.9821
 Ewald error estimate:   0.8250E-04
 ------------------------------------------------------------------------------

      A V E R A G E S   O V E R     100 S T E P S

 NSTEP =    50000   TIME(PS) =     200.000  TEMP(K) =   300.33  PRESS =   -23.4
 Etot   =    -75827.7311  EKtot   =     18522.5897  EPtot      =    -94350.3208
 BOND   =       386.7977  ANGLE   =       991.3486  DIHED      =      1622.8232
 1-4 NB =       479.1805  1-4 EEL =      4362.9331  VDWAALS    =     12228.4031
 EELEC  =   -114549.5002  EHBOND  =         0.0000  RESTRAINT  =       127.6933
 EAMBER (non-restraint)  =    -94478.0141
 EKCMT  =      8526.1326  VIRIAL  =      8681.4734  VOLUME     =    306228.8443
                                                    Density    =         1.0061
 Ewald error estimate:   0.6507E-04
 ------------------------------------------------------------------------------

      R M S  F L U C T U A T I O N S

 NSTEP =    50000   TIME(PS) =     200.000  TEMP(K) =     2.72  PRESS =   114.0
 Etot   =       467.2896  EKtot   =       167.8826  EPtot      =       336.6502
 BOND   =        18.7063  ANGLE   =        25.7325  DIHED      =        13.2967
 1-4 NB =         9.0081  1-4 EEL =        22.2528  VDWAALS    =       137.9684
 EELEC  =       371.2414  EHBOND  =         0.0000  RESTRAINT  =        30.9079
 EAMBER (non-restraint)  =       305.7423
 EKCMT  =        99.2081  VIRIAL  =       759.1008  VOLUME     =      1399.3623
                                                    Density    =         0.0045
 Ewald error estimate:   0.5437E-04
 ------------------------------------------------------------------------------
