-------------------------------------------------------
          Amber 16 PMEMD                              2016
          -------------------------------------------------------

  [-O]verwriting output

File Assignments:

 Here is the input file:

MD simulation NPT without restraint
&cntrl
imin = 0, irest = 1,ntx = 5, nstlim = 1000000, dt = 0.002,
ntc = 2, ntf = 2,
cut = 10.0, ntb = 2, ntp = 1, taup=2.0,
ntpr = 500, ntwx = 500,
ntt = 3, gamma_ln = 2.0,
temp0 = 300.0,
ioutfm = 1,
/

Note: ig = -1. Setting random seed to   923183 based on wallclock time in
      microseconds and disabling the synchronization of random numbers
      between tasks to improve performance.

--------------------------------------------------------------------------------
   1.  RESOURCE   USE:
--------------------------------------------------------------------------------

 getting box info from netcdf restart file
 NATOM  =   30525 NTYPES =      26 NBONH =   29504 MBONA  =    1051
 NTHETH =    2326 MTHETA =    1426 NPHIH =    4633 MPHIA  =    4385
 NHPARM =       0 NPARM  =       0 NNB   =   49324 NRES   =    9614
 NBONA  =    1051 NTHETA =    1426 NPHIA =    4385 NUMBND =      80
 NUMANG =     178 NPTRA  =     203 NATYP =      44 NPHB   =       1
 IFBOX  =       1 NMXRS  =      68 IFCAP =       0 NEXTRA =       0
 NCOPY  =       0

     BOX TYPE: RECTILINEAR

--------------------------------------------------------------------------------
   2.  CONTROL  DATA  FOR  THE  RUN
--------------------------------------------------------------------------------

default_name

General flags:
     imin    =       0, nmropt  =       0

Nature and format of input:
     ntx     =       5, irest   =       1, ntrx    =       1

Nature and format of output:
     ntxo    =       2, ntpr    =     500, ntrx    =       1, ntwr    = 1000000
     iwrap   =       0, ntwx    =     500, ntwv    =       0, ntwe    =       0
     ioutfm  =       1, ntwprt  =       0, idecomp =       0, rbornstat=      0

Potential function:
     ntf     =       2, ntb     =       2, igb     =       0, nsnb    =      25
     ipol    =       0, gbsa    =       0, iesp    =       0
     dielc   =   1.00000, cut     =  10.00000, intdiel =   1.00000

Frozen or restrained atoms:
     ibelly  =       0, ntr     =       0

Molecular dynamics:
     nstlim  =   1000000, nscm    =      1000, nrespa  =         1
     t       =   0.00000, dt      =   0.00200, vlimit  =  20.00000

Langevin dynamics temperature regulation:
     ig      =  923183
     temp0   = 300.00000, tempi   =   0.00000, gamma_ln=   2.00000

Pressure regulation:
     ntp     =       1
     pres0   =   1.00000, comp    =  44.60000, taup    =   2.00000

SHAKE:
     ntc     =       2, jfastw  =       0
     tol     =   0.00001

Ewald parameters:
     verbose =       0, ew_type =       0, nbflag  =       1, use_pme =       1
     vdwmeth =       1, eedmeth =       1, netfrc  =       1
     Box X =   60.694   Box Y =   69.903   Box Z =   72.074
     Alpha =   90.000   Beta  =   90.000   Gamma =   90.000
     NFFT1 =   64       NFFT2 =   72       NFFT3 =   75
     Cutoff=   10.000   Tol   =0.100E-04
     Ewald Coefficient =  0.27511
     Interpolation order =    4

--------------------------------------------------------------------------------
   3.  ATOMIC COORDINATES AND VELOCITIES
--------------------------------------------------------------------------------

default_name
 begin time read from input coords =   200.000 ps

 Number of triangulated 3-point waters found:     9496

     Sum of charges from parm topology file =   0.00200294
     Forcing neutrality...

--------------------------------------------------------------------------------
   4.  RESULTS
 NSTEP =      500   TIME(PS) =     201.000  TEMP(K) =   299.78  PRESS =  -241.5
 Etot   =    -76189.0258  EKtot   =     18488.7156  EPtot      =    -94677.7413
 BOND   =       424.0014  ANGLE   =       971.3281  DIHED      =      1620.4045
 1-4 NB =       474.7273  1-4 EEL =      4315.1171  VDWAALS    =     12003.7624
 EELEC  =   -114487.0822  EHBOND  =         0.0000  RESTRAINT  =         0.0000
 EKCMT  =      8494.7763  VIRIAL  =     10089.5750  VOLUME     =    305836.2434
                                                    Density    =         1.0074
 Ewald error estimate:   0.1125E-03
 ------------------------------------------------------------------------------

      A V E R A G E S   O V E R    2000 S T E P S

 NSTEP =  1000000   TIME(PS) =    2200.000  TEMP(K) =   299.96  PRESS =     3.2
 Etot   =    -75978.2262  EKtot   =     18499.6267  EPtot      =    -94477.8529
 BOND   =       393.6616  ANGLE   =      1005.4929  DIHED      =      1627.2499
 1-4 NB =       474.3021  1-4 EEL =      4341.6618  VDWAALS    =     12286.0889
 EELEC  =   -114606.3100  EHBOND  =         0.0000  RESTRAINT  =         0.0000
 EKCMT  =      8519.2703  VIRIAL  =      8498.0192  VOLUME     =    306290.7266
                                                    Density    =         1.0059
 Ewald error estimate:   0.6726E-04
 ------------------------------------------------------------------------------

      R M S  F L U C T U A T I O N S

 NSTEP =  1000000   TIME(PS) =    2200.000  TEMP(K) =     1.70  PRESS =   127.6
 Etot   =       179.0382  EKtot   =       105.1304  EPtot      =       147.4328
 BOND   =        16.7651  ANGLE   =        25.5969  DIHED      =        14.5139
 1-4 NB =         8.8391  1-4 EEL =        26.4585  VDWAALS    =       141.0621
 EELEC  =       227.7414  EHBOND  =         0.0000  RESTRAINT  =         0.0000
 EKCMT  =        70.0264  VIRIAL  =       842.3147  VOLUME     =       367.9324
                                                    Density    =         0.0012
 Ewald error estimate:   0.5062E-04
 ------------------------------------------------------------------------------
