-------------------------------------------------------
          Amber 16 PMEMD                              2016
          -------------------------------------------------------

  [-O]verwriting output

File Assignments:

 Here is the input file:

MD simulation NPT without restraint
&cntrl
imin = 0, irest = 1,ntx = 5, nstlim = 1000000, dt = 0.002,
ntc = 2, ntf = 2,
cut = 10.0, ntb = 2, ntp = 1, taup=2.0,
ntpr = 500, ntwx = 500,
ntt = 3, gamma_ln = 2.0,
temp0 = 300.0,
ioutfm = 1,
/

Note: ig = -1. Setting random seed to   663543 based on wallclock time in
      microseconds and disabling the synchronization of random numbers
      between tasks to improve performance.

--------------------------------------------------------------------------------
   1.  RESOURCE   USE:
--------------------------------------------------------------------------------

 getting box info from netcdf restart file
 NATOM  =   30525 NTYPES =      26 NBONH =   29504 MBONA  =    1051
 NTHETH =    2326 MTHETA =    1426 NPHIH =    4633 MPHIA  =    4385
 NHPARM =       0 NPARM  =       0 NNB   =   49324 NRES   =    9614
 NBONA  =    1051 NTHETA =    1426 NPHIA =    4385 NUMBND =      80
 NUMANG =     178 NPTRA  =     203 NATYP =      44 NPHB   =       1
 IFBOX  =       1 NMXRS  =      68 IFCAP =       0 NEXTRA =       0
 NCOPY  =       0

     BOX TYPE: RECTILINEAR

--------------------------------------------------------------------------------
   2.  CONTROL  DATA  FOR  THE  RUN
--------------------------------------------------------------------------------

default_name

General flags:
     imin    =       0, nmropt  =       0

Nature and format of input:
     ntx     =       5, irest   =       1, ntrx    =       1

Nature and format of output:
     ntxo    =       2, ntpr    =     500, ntrx    =       1, ntwr    = 1000000
     iwrap   =       0, ntwx    =     500, ntwv    =       0, ntwe    =       0
     ioutfm  =       1, ntwprt  =       0, idecomp =       0, rbornstat=      0

Potential function:
     ntf     =       2, ntb     =       2, igb     =       0, nsnb    =      25
     ipol    =       0, gbsa    =       0, iesp    =       0
     dielc   =   1.00000, cut     =  10.00000, intdiel =   1.00000

Frozen or restrained atoms:
     ibelly  =       0, ntr     =       0

Molecular dynamics:
     nstlim  =   1000000, nscm    =      1000, nrespa  =         1
     t       =   0.00000, dt      =   0.00200, vlimit  =  20.00000

Langevin dynamics temperature regulation:
     ig      =  663543
     temp0   = 300.00000, tempi   =   0.00000, gamma_ln=   2.00000

Pressure regulation:
     ntp     =       1
     pres0   =   1.00000, comp    =  44.60000, taup    =   2.00000

SHAKE:
     ntc     =       2, jfastw  =       0
     tol     =   0.00001

Ewald parameters:
     verbose =       0, ew_type =       0, nbflag  =       1, use_pme =       1
     vdwmeth =       1, eedmeth =       1, netfrc  =       1
     Box X =   60.730   Box Y =   69.944   Box Z =   72.116
     Alpha =   90.000   Beta  =   90.000   Gamma =   90.000
     NFFT1 =   64       NFFT2 =   72       NFFT3 =   75
     Cutoff=   10.000   Tol   =0.100E-04
     Ewald Coefficient =  0.27511
     Interpolation order =    4

--------------------------------------------------------------------------------
   3.  ATOMIC COORDINATES AND VELOCITIES
--------------------------------------------------------------------------------

default_name
 begin time read from input coords =  2200.000 ps

 Number of triangulated 3-point waters found:     9496

     Sum of charges from parm topology file =   0.00200294
     Forcing neutrality...

--------------------------------------------------------------------------------
   4.  RESULTS
 NSTEP =      500   TIME(PS) =    2201.000  TEMP(K) =   300.68  PRESS =   -24.5
 Etot   =    -76048.4023  EKtot   =     18543.9606  EPtot      =    -94592.3629
 BOND   =       382.7224  ANGLE   =       965.8296  DIHED      =      1645.0433
 1-4 NB =       470.6569  1-4 EEL =      4336.7451  VDWAALS    =     12235.5011
 EELEC  =   -114628.8612  EHBOND  =         0.0000  RESTRAINT  =         0.0000
 EKCMT  =      8586.2492  VIRIAL  =      8748.3253  VOLUME     =    306496.3112
                                                    Density    =         1.0052
 Ewald error estimate:   0.3451E-04
 ------------------------------------------------------------------------------

      A V E R A G E S   O V E R    2000 S T E P S

 NSTEP =  1000000   TIME(PS) =    4200.000  TEMP(K) =   299.97  PRESS =     3.5
 Etot   =    -75974.6890  EKtot   =     18500.3604  EPtot      =    -94475.0494
 BOND   =       393.7412  ANGLE   =      1005.5474  DIHED      =      1628.6789
 1-4 NB =       474.7673  1-4 EEL =      4360.0197  VDWAALS    =     12289.1790
 EELEC  =   -114626.9828  EHBOND  =         0.0000  RESTRAINT  =         0.0000
 EKCMT  =      8519.4083  VIRIAL  =      8496.3580  VOLUME     =    306299.2357
                                                    Density    =         1.0059
 Ewald error estimate:   0.6877E-04
 ------------------------------------------------------------------------------

      R M S  F L U C T U A T I O N S

 NSTEP =  1000000   TIME(PS) =    4200.000  TEMP(K) =     1.71  PRESS =   133.7
 Etot   =       178.8323  EKtot   =       105.5759  EPtot      =       147.2321
 BOND   =        16.7107  ANGLE   =        24.6579  DIHED      =        14.6095
 1-4 NB =         8.9586  1-4 EEL =        29.0727  VDWAALS    =       140.1984
 EELEC  =       218.7315  EHBOND  =         0.0000  RESTRAINT  =         0.0000
 EKCMT  =        71.1138  VIRIAL  =       887.4427  VOLUME     =       367.0107
                                                    Density    =         0.0012
 Ewald error estimate:   0.5106E-04
 ------------------------------------------------------------------------------
